ARB_GBA01F3_2019/CondMT.dss
! CONDUTORES DE MEDIA TENSAO 
New Linecode.2201010_M_1 R1=1.308 X1=0.4993 normamps=130.0 units=km 
New Linecode.2201010_M_2 R1=1.308 X1=0.4993 normamps=130.0 units=km 
New Linecode.2201010_M_3 R1=1.308 X1=0.4993 normamps=130.0 units=km 
New Linecode.2202000_M_1 R1=0.975 X1=0.5238 normamps=180.0 units=km 
New Linecode.2202000_M_2 R1=0.975 X1=0.5238 normamps=180.0 units=km 
New Linecode.2202000_M_3 R1=0.975 X1=0.5238 normamps=180.0 units=km 
New Linecode.2202001_M_1 R1=1.551 X1=0.52 normamps=140.0 units=km 
New Linecode.2202001_M_2 R1=1.551 X1=0.52 normamps=140.0 units=km 
New Linecode.2202001_M_3 R1=1.551 X1=0.52 normamps=140.0 units=km 
New Linecode.2202002_M_1 R1=0.613 X1=0.5182 normamps=230.0 units=km 
New Linecode.2202002_M_2 R1=0.613 X1=0.5182 normamps=230.0 units=km 
New Linecode.2202002_M_3 R1=0.613 X1=0.5182 normamps=230.0 units=km 
New Linecode.2202003_M_1 R1=0.486 X1=0.509 normamps=270.0 units=km 
New Linecode.2202003_M_2 R1=0.486 X1=0.509 normamps=270.0 units=km 
New Linecode.2202003_M_3 R1=0.486 X1=0.509 normamps=270.0 units=km 
New Linecode.2202004_M_1 R1=0.486 X1=0.509 normamps=270.0 units=km 
New Linecode.2202004_M_2 R1=0.486 X1=0.509 normamps=270.0 units=km 
New Linecode.2202004_M_3 R1=0.486 X1=0.509 normamps=270.0 units=km 
New Linecode.2202006_M_1 R1=0.306 X1=0.4716 normamps=340.0 units=km 
New Linecode.2202006_M_2 R1=0.306 X1=0.4716 normamps=340.0 units=km 
New Linecode.2202006_M_3 R1=0.306 X1=0.4716 normamps=340.0 units=km 
New Linecode.2202007_M_1 R1=0.195 X1=0.3908 normamps=530.0 units=km 
New Linecode.2202007_M_2 R1=0.195 X1=0.3908 normamps=530.0 units=km 
New Linecode.2202007_M_3 R1=0.195 X1=0.3908 normamps=530.0 units=km 
New Linecode.2202009_M_1 R1=0.138 X1=0.379 normamps=140.0 units=km 
New Linecode.2202009_M_2 R1=0.138 X1=0.379 normamps=140.0 units=km 
New Linecode.2202009_M_3 R1=0.138 X1=0.379 normamps=140.0 units=km 
New Linecode.2202012_M_1 R1=2.469 X1=0.1 normamps=100.0 units=km 
New Linecode.2202012_M_2 R1=2.469 X1=0.1 normamps=100.0 units=km 
New Linecode.2202012_M_3 R1=2.469 X1=0.1 normamps=100.0 units=km 
New Linecode.2202018_M_1 R1=0.195 X1=0.402 normamps=514.0 units=km 
New Linecode.2202018_M_2 R1=0.195 X1=0.402 normamps=514.0 units=km 
New Linecode.2202018_M_3 R1=0.195 X1=0.402 normamps=514.0 units=km 
New Linecode.2202021_M_1 R1=0.975 X1=0.4672 normamps=180.0 units=km 
New Linecode.2202021_M_2 R1=0.975 X1=0.4672 normamps=180.0 units=km 
New Linecode.2202021_M_3 R1=0.975 X1=0.4672 normamps=180.0 units=km 
New Linecode.2202022_M_1 R1=1.551 X1=0.496 normamps=134.0 units=km 
New Linecode.2202022_M_2 R1=1.551 X1=0.496 normamps=134.0 units=km 
New Linecode.2202022_M_3 R1=1.551 X1=0.496 normamps=134.0 units=km 
New Linecode.2202023_M_1 R1=0.613 X1=0.4483 normamps=242.0 units=km 
New Linecode.2202023_M_2 R1=0.613 X1=0.4483 normamps=242.0 units=km 
New Linecode.2202023_M_3 R1=0.613 X1=0.4483 normamps=242.0 units=km 
New Linecode.2202024_M_1 R1=0.486 X1=0.441 normamps=282.0 units=km 
New Linecode.2202024_M_2 R1=0.486 X1=0.441 normamps=282.0 units=km 
New Linecode.2202024_M_3 R1=0.486 X1=0.441 normamps=282.0 units=km 
New Linecode.2202026_M_1 R1=0.306 X1=0.4236 normamps=380.0 units=km 
New Linecode.2202026_M_2 R1=0.306 X1=0.4236 normamps=380.0 units=km 
New Linecode.2202026_M_3 R1=0.306 X1=0.4236 normamps=380.0 units=km 
New Linecode.2202027_M_1 R1=0.195 X1=0.402 normamps=514.0 units=km 
New Linecode.2202027_M_2 R1=0.195 X1=0.402 normamps=514.0 units=km 
New Linecode.2202027_M_3 R1=0.195 X1=0.402 normamps=514.0 units=km 
New Linecode.2202028_M_1 R1=0.138 X1=0.3899 normamps=646.0 units=km 
New Linecode.2202028_M_2 R1=0.138 X1=0.3899 normamps=646.0 units=km 
New Linecode.2202028_M_3 R1=0.138 X1=0.3899 normamps=646.0 units=km 
New Linecode.2202040_M_1 R1=1.551 X1=0.52 normamps=140.0 units=km 
New Linecode.2202040_M_2 R1=1.551 X1=0.52 normamps=140.0 units=km 
New Linecode.2202040_M_3 R1=1.551 X1=0.52 normamps=140.0 units=km 
New Linecode.2202041_M_1 R1=0.613 X1=0.5182 normamps=230.0 units=km 
New Linecode.2202041_M_2 R1=0.613 X1=0.5182 normamps=230.0 units=km 
New Linecode.2202041_M_3 R1=0.613 X1=0.5182 normamps=230.0 units=km 
New Linecode.2202043_M_1 R1=0.3797 X1=0.3925 normamps=436.0 units=km 
New Linecode.2202043_M_2 R1=0.3797 X1=0.3925 normamps=436.0 units=km 
New Linecode.2202043_M_3 R1=0.3797 X1=0.3925 normamps=436.0 units=km 
New Linecode.2202058_M_1 R1=0.423 X1=0.3887 normamps=267.0 units=km 
New Linecode.2202058_M_2 R1=0.423 X1=0.3887 normamps=267.0 units=km 
New Linecode.2202058_M_3 R1=0.423 X1=0.3887 normamps=267.0 units=km 
New Linecode.2203006_M_1 R1=0.175 X1=0.1 normamps=500.0 units=km 
New Linecode.2203006_M_2 R1=0.175 X1=0.1 normamps=500.0 units=km 
New Linecode.2203006_M_3 R1=0.175 X1=0.1 normamps=500.0 units=km 
New Linecode.2203008_M_1 R1=0.596 X1=0.4658 normamps=210.0 units=km 
New Linecode.2203008_M_2 R1=0.596 X1=0.4658 normamps=210.0 units=km 
New Linecode.2203008_M_3 R1=0.596 X1=0.4658 normamps=210.0 units=km 
New Linecode.2203009_M_1 R1=0.827 X1=0.4781 normamps=180.0 units=km 
New Linecode.2203009_M_2 R1=0.827 X1=0.4781 normamps=180.0 units=km 
New Linecode.2203009_M_3 R1=0.827 X1=0.4781 normamps=180.0 units=km 
New Linecode.2203014_M_1 R1=1.308 X1=0.4993 normamps=130.0 units=km 
New Linecode.2203014_M_2 R1=1.308 X1=0.4993 normamps=130.0 units=km 
New Linecode.2203014_M_3 R1=1.308 X1=0.4993 normamps=130.0 units=km 
New Linecode.2203015_M_1 R1=0.827 X1=0.4781 normamps=180.0 units=km 
New Linecode.2203015_M_2 R1=0.827 X1=0.4781 normamps=180.0 units=km 
New Linecode.2203015_M_3 R1=0.827 X1=0.4781 normamps=180.0 units=km 
New Linecode.2203016_M_1 R1=0.596 X1=0.4658 normamps=210.0 units=km 
New Linecode.2203016_M_2 R1=0.596 X1=0.4658 normamps=210.0 units=km 
New Linecode.2203016_M_3 R1=0.596 X1=0.4658 normamps=210.0 units=km 
New Linecode.2203017_M_1 R1=0.441 X1=0.4531 normamps=274.0 units=km 
New Linecode.2203017_M_2 R1=0.441 X1=0.4531 normamps=274.0 units=km 
New Linecode.2203017_M_3 R1=0.441 X1=0.4531 normamps=274.0 units=km 
New Linecode.2203018_M_1 R1=0.441 X1=0.4531 normamps=274.0 units=km 
New Linecode.2203018_M_2 R1=0.441 X1=0.4531 normamps=274.0 units=km 
New Linecode.2203018_M_3 R1=0.441 X1=0.4531 normamps=274.0 units=km 
New Linecode.2203020_M_1 R1=0.305 X1=0.4362 normamps=360.0 units=km 
New Linecode.2203020_M_2 R1=0.305 X1=0.4362 normamps=360.0 units=km 
New Linecode.2203020_M_3 R1=0.305 X1=0.4362 normamps=360.0 units=km 
New Linecode.2203021_M_1 R1=0.305 X1=0.4362 normamps=360.0 units=km 
New Linecode.2203021_M_2 R1=0.305 X1=0.4362 normamps=360.0 units=km 
New Linecode.2203021_M_3 R1=0.305 X1=0.4362 normamps=360.0 units=km 
New Linecode.2203022_M_1 R1=0.22 X1=0.425 normamps=430.0 units=km 
New Linecode.2203022_M_2 R1=0.22 X1=0.425 normamps=430.0 units=km 
New Linecode.2203022_M_3 R1=0.22 X1=0.425 normamps=430.0 units=km 
New Linecode.2203023_M_1 R1=0.175 X1=0.1 normamps=500.0 units=km 
New Linecode.2203023_M_2 R1=0.175 X1=0.1 normamps=500.0 units=km 
New Linecode.2203023_M_3 R1=0.175 X1=0.1 normamps=500.0 units=km 
New Linecode.2203024_M_1 R1=0.175 X1=0.1 normamps=500.0 units=km 
New Linecode.2203024_M_2 R1=0.175 X1=0.1 normamps=500.0 units=km 
New Linecode.2203024_M_3 R1=0.175 X1=0.1 normamps=500.0 units=km 
New Linecode.2203036_M_1 R1=0.173 X1=0.30888 normamps=480.0 units=km 
New Linecode.2203036_M_2 R1=0.173 X1=0.30888 normamps=480.0 units=km 
New Linecode.2203036_M_3 R1=0.173 X1=0.30888 normamps=480.0 units=km 
New Linecode.2203037_M_1 R1=0.147 X1=0.30267 normamps=540.0 units=km 
New Linecode.2203037_M_2 R1=0.147 X1=0.30267 normamps=540.0 units=km 
New Linecode.2203037_M_3 R1=0.147 X1=0.30267 normamps=540.0 units=km 
New Linecode.2212003_M_1 R1=0.991 X1=0.3212 normamps=149.0 units=km 
New Linecode.2212003_M_2 R1=0.991 X1=0.3212 normamps=149.0 units=km 
New Linecode.2212003_M_3 R1=0.991 X1=0.3212 normamps=149.0 units=km 
New Linecode.2212011_M_1 R1=0.188 X1=0.2589 normamps=438.0 units=km 
New Linecode.2212011_M_2 R1=0.188 X1=0.2589 normamps=438.0 units=km 
New Linecode.2212011_M_3 R1=0.188 X1=0.2589 normamps=438.0 units=km 
New Linecode.2212012_M_1 R1=0.4165 X1=0.2969 normamps=250.0 units=km 
New Linecode.2212012_M_2 R1=0.4165 X1=0.2969 normamps=250.0 units=km 
New Linecode.2212012_M_3 R1=0.4165 X1=0.2969 normamps=250.0 units=km 
New Linecode.2212015_M_1 R1=0.991 X1=0.3212 normamps=149.0 units=km 
New Linecode.2212015_M_2 R1=0.991 X1=0.3212 normamps=149.0 units=km 
New Linecode.2212015_M_3 R1=0.991 X1=0.3212 normamps=149.0 units=km 
New Linecode.2212016_M_1 R1=0.506 X1=0.2969 normamps=229.0 units=km 
New Linecode.2212016_M_2 R1=0.506 X1=0.2969 normamps=229.0 units=km 
New Linecode.2212016_M_3 R1=0.506 X1=0.2969 normamps=229.0 units=km 
New Linecode.2212017_M_1 R1=0.188 X1=0.2589 normamps=438.0 units=km 
New Linecode.2212017_M_2 R1=0.188 X1=0.2589 normamps=438.0 units=km 
New Linecode.2212017_M_3 R1=0.188 X1=0.2589 normamps=438.0 units=km 
New Linecode.2212018_M_1 R1=0.188 X1=0.2589 normamps=438.0 units=km 
New Linecode.2212018_M_2 R1=0.188 X1=0.2589 normamps=438.0 units=km 
New Linecode.2212018_M_3 R1=0.188 X1=0.2589 normamps=438.0 units=km 
New Linecode.2212019_M_1 R1=0.506 X1=0.2969 normamps=229.0 units=km 
New Linecode.2212019_M_2 R1=0.506 X1=0.2969 normamps=229.0 units=km 
New Linecode.2212019_M_3 R1=0.506 X1=0.2969 normamps=229.0 units=km 
New Linecode.2212020_M_1 R1=0.1217 X1=0.3899 normamps=691.0 units=km 
New Linecode.2212020_M_2 R1=0.1217 X1=0.3899 normamps=691.0 units=km 
New Linecode.2212020_M_3 R1=0.1217 X1=0.3899 normamps=691.0 units=km 
New Linecode.2223013_M_1 R1=0.142 X1=0.1 normamps=180.0 units=km 
New Linecode.2223013_M_2 R1=0.142 X1=0.1 normamps=180.0 units=km 
New Linecode.2223013_M_3 R1=0.142 X1=0.1 normamps=180.0 units=km 
New Linecode.2223026_M_1 R1=0.142 X1=0.1 normamps=180.0 units=km 
New Linecode.2223026_M_2 R1=0.142 X1=0.1 normamps=180.0 units=km 
New Linecode.2223026_M_3 R1=0.142 X1=0.1 normamps=180.0 units=km 
New Linecode.2223036_M_1 R1=0.142 X1=0.1 normamps=220.0 units=km 
New Linecode.2223036_M_2 R1=0.142 X1=0.1 normamps=220.0 units=km 
New Linecode.2223036_M_3 R1=0.142 X1=0.1 normamps=220.0 units=km 
New Linecode.2224003_M_1 R1=0.143 X1=0.1327 normamps=308.0 units=km 
New Linecode.2224003_M_2 R1=0.143 X1=0.1327 normamps=308.0 units=km 
New Linecode.2224003_M_3 R1=0.143 X1=0.1327 normamps=308.0 units=km 
New Linecode.2224005_M_1 R1=0.289 X1=0.1411 normamps=242.0 units=km 
New Linecode.2224005_M_2 R1=0.289 X1=0.1411 normamps=242.0 units=km 
New Linecode.2224005_M_3 R1=0.289 X1=0.1411 normamps=242.0 units=km 
New Linecode.2224006_M_1 R1=0.143 X1=0.1327 normamps=308.0 units=km 
New Linecode.2224006_M_2 R1=0.143 X1=0.1327 normamps=308.0 units=km 
New Linecode.2224006_M_3 R1=0.143 X1=0.1327 normamps=308.0 units=km 
New Linecode.2225012_M_1 R1=0.441 X1=0.1638 normamps=186.0 units=km 
New Linecode.2225012_M_2 R1=0.441 X1=0.1638 normamps=186.0 units=km 
New Linecode.2225012_M_3 R1=0.441 X1=0.1638 normamps=186.0 units=km 
New Linecode.2225013_M_1 R1=0.07 X1=0.1235 normamps=516.0 units=km 
New Linecode.2225013_M_2 R1=0.07 X1=0.1235 normamps=516.0 units=km 
New Linecode.2225013_M_3 R1=0.07 X1=0.1235 normamps=516.0 units=km 
New Linecode.2225017_M_1 R1=0.441 X1=0.1638 normamps=186.0 units=km 
New Linecode.2225017_M_2 R1=0.441 X1=0.1638 normamps=186.0 units=km 
New Linecode.2225017_M_3 R1=0.441 X1=0.1638 normamps=186.0 units=km 
New Linecode.2225018_M_1 R1=0.305 X1=0.154 normamps=228.0 units=km 
New Linecode.2225018_M_2 R1=0.305 X1=0.154 normamps=228.0 units=km 
New Linecode.2225018_M_3 R1=0.305 X1=0.154 normamps=228.0 units=km 
New Linecode.2225020_M_1 R1=0.441 X1=0.1638 normamps=186.0 units=km 
New Linecode.2225020_M_2 R1=0.441 X1=0.1638 normamps=186.0 units=km 
New Linecode.2225020_M_3 R1=0.441 X1=0.1638 normamps=186.0 units=km 
New Linecode.2225024_M_1 R1=0.441 X1=0.1638 normamps=186.0 units=km 
New Linecode.2225024_M_2 R1=0.441 X1=0.1638 normamps=186.0 units=km 
New Linecode.2225024_M_3 R1=0.441 X1=0.1638 normamps=186.0 units=km 
New Linecode.2225025_M_1 R1=0.441 X1=0.1638 normamps=186.0 units=km 
New Linecode.2225025_M_2 R1=0.441 X1=0.1638 normamps=186.0 units=km 
New Linecode.2225025_M_3 R1=0.441 X1=0.1638 normamps=186.0 units=km 
New Linecode.2225026_M_1 R1=0.087 X1=0.1273 normamps=457.0 units=km 
New Linecode.2225026_M_2 R1=0.087 X1=0.1273 normamps=457.0 units=km 
New Linecode.2225026_M_3 R1=0.087 X1=0.1273 normamps=457.0 units=km 
New Linecode.2225027_M_1 R1=0.087 X1=0.1273 normamps=457.0 units=km 
New Linecode.2225027_M_2 R1=0.087 X1=0.1273 normamps=457.0 units=km 
New Linecode.2225027_M_3 R1=0.087 X1=0.1273 normamps=457.0 units=km 
New Linecode.2225028_M_1 R1=0.22 X1=0.154 normamps=300.0 units=km 
New Linecode.2225028_M_2 R1=0.22 X1=0.154 normamps=300.0 units=km 
New Linecode.2225028_M_3 R1=0.22 X1=0.154 normamps=300.0 units=km 
New Linecode.2225030_M_1 R1=0.07 X1=0.1235 normamps=516.0 units=km 
New Linecode.2225030_M_2 R1=0.07 X1=0.1235 normamps=516.0 units=km 
New Linecode.2225030_M_3 R1=0.07 X1=0.1235 normamps=516.0 units=km 
New Linecode.2225031_M_1 R1=0.07 X1=0.1235 normamps=516.0 units=km 
New Linecode.2225031_M_2 R1=0.07 X1=0.1235 normamps=516.0 units=km 
New Linecode.2225031_M_3 R1=0.07 X1=0.1235 normamps=516.0 units=km 
New Linecode.2225032_M_1 R1=0.142 X1=0.1711 normamps=122.0 units=km 
New Linecode.2225032_M_2 R1=0.142 X1=0.1711 normamps=122.0 units=km 
New Linecode.2225032_M_3 R1=0.142 X1=0.1711 normamps=122.0 units=km 
New Linecode.2225035_M_1 R1=0.056 X1=0.1533 normamps=177.0 units=km 
New Linecode.2225035_M_2 R1=0.056 X1=0.1533 normamps=177.0 units=km 
New Linecode.2225035_M_3 R1=0.056 X1=0.1533 normamps=177.0 units=km 
New Linecode.2225036_M_1 R1=0.596 X1=0.1711 normamps=157.0 units=km 
New Linecode.2225036_M_2 R1=0.596 X1=0.1711 normamps=157.0 units=km 
New Linecode.2225036_M_3 R1=0.596 X1=0.1711 normamps=157.0 units=km 
New Linecode.2225037_M_1 R1=0.305 X1=0.154 normamps=228.0 units=km 
New Linecode.2225037_M_2 R1=0.305 X1=0.154 normamps=228.0 units=km 
New Linecode.2225037_M_3 R1=0.305 X1=0.154 normamps=228.0 units=km 
New Linecode.2225038_M_1 R1=0.175 X1=0.1411 normamps=311.0 units=km 
New Linecode.2225038_M_2 R1=0.175 X1=0.1411 normamps=311.0 units=km 
New Linecode.2225038_M_3 R1=0.175 X1=0.1411 normamps=311.0 units=km 
New Linecode.2225040_M_1 R1=0.441 X1=0.1638 normamps=186.0 units=km 
New Linecode.2225040_M_2 R1=0.441 X1=0.1638 normamps=186.0 units=km 
New Linecode.2225040_M_3 R1=0.441 X1=0.1638 normamps=186.0 units=km 
New Linecode.2225041_M_1 R1=0.305 X1=0.154 normamps=228.0 units=km 
New Linecode.2225041_M_2 R1=0.305 X1=0.154 normamps=228.0 units=km 
New Linecode.2225041_M_3 R1=0.305 X1=0.154 normamps=228.0 units=km 
New Linecode.2225046_M_1 R1=0.305 X1=0.2 normamps=270.0 units=km 
New Linecode.2225046_M_2 R1=0.305 X1=0.2 normamps=270.0 units=km 
New Linecode.2225046_M_3 R1=0.305 X1=0.2 normamps=270.0 units=km 
New Linecode.2225050_M_1 R1=0.441 X1=0.1638 normamps=186.0 units=km 
New Linecode.2225050_M_2 R1=0.441 X1=0.1638 normamps=186.0 units=km 
New Linecode.2225050_M_3 R1=0.441 X1=0.1638 normamps=186.0 units=km 
New Linecode.2225056_M_1 R1=0.087 X1=0.1273 normamps=457.0 units=km 
New Linecode.2225056_M_2 R1=0.087 X1=0.1273 normamps=457.0 units=km 
New Linecode.2225056_M_3 R1=0.087 X1=0.1273 normamps=457.0 units=km 
New Linecode.2225061_M_1 R1=0.175 X1=0.1411 normamps=311.0 units=km 
New Linecode.2225061_M_2 R1=0.175 X1=0.1411 normamps=311.0 units=km 
New Linecode.2225061_M_3 R1=0.175 X1=0.1411 normamps=311.0 units=km 
New Linecode.2225064_M_1 R1=0.056 X1=0.1533 normamps=177.0 units=km 
New Linecode.2225064_M_2 R1=0.056 X1=0.1533 normamps=177.0 units=km 
New Linecode.2225064_M_3 R1=0.056 X1=0.1533 normamps=177.0 units=km 
New Linecode.2225067_M_1 R1=0.07 X1=0.1235 normamps=516.0 units=km 
New Linecode.2225067_M_2 R1=0.07 X1=0.1235 normamps=516.0 units=km 
New Linecode.2225067_M_3 R1=0.07 X1=0.1235 normamps=516.0 units=km 
New Linecode.2225068_M_1 R1=0.07 X1=0.1235 normamps=516.0 units=km 
New Linecode.2225068_M_2 R1=0.07 X1=0.1235 normamps=516.0 units=km 
New Linecode.2225068_M_3 R1=0.07 X1=0.1235 normamps=516.0 units=km 
New Linecode.2225069_M_1 R1=0.175 X1=0.1411 normamps=311.0 units=km 
New Linecode.2225069_M_2 R1=0.175 X1=0.1411 normamps=311.0 units=km 
New Linecode.2225069_M_3 R1=0.175 X1=0.1411 normamps=311.0 units=km 
New Linecode.2225091_M_1 R1=0.082 X1=0.117 normamps=340.0 units=km 
New Linecode.2225091_M_2 R1=0.082 X1=0.117 normamps=340.0 units=km 
New Linecode.2225091_M_3 R1=0.082 X1=0.117 normamps=340.0 units=km 
New Linecode.2225092_M_1 R1=0.197 X1=0.139 normamps=211.0 units=km 
New Linecode.2225092_M_2 R1=0.197 X1=0.139 normamps=211.0 units=km 
New Linecode.2225092_M_3 R1=0.197 X1=0.139 normamps=211.0 units=km 
New Linecode.2225093_M_1 R1=0.344 X1=0.168 normamps=156.0 units=km 
New Linecode.2225093_M_2 R1=0.344 X1=0.168 normamps=156.0 units=km 
New Linecode.2225093_M_3 R1=0.344 X1=0.168 normamps=156.0 units=km 
New Linecode.2225094_M_1 R1=0.1 X1=0.138 normamps=306.0 units=km 
New Linecode.2225094_M_2 R1=0.1 X1=0.138 normamps=306.0 units=km 
New Linecode.2225094_M_3 R1=0.1 X1=0.138 normamps=306.0 units=km 
New Linecode.2225095_M_1 R1=0.495 X1=0.179 normamps=128.0 units=km 
New Linecode.2225095_M_2 R1=0.495 X1=0.179 normamps=128.0 units=km 
New Linecode.2225095_M_3 R1=0.495 X1=0.179 normamps=128.0 units=km 
New Linecode.2225097_M_1 R1=0.248 X1=0.114 normamps=186.0 units=km 
New Linecode.2225097_M_2 R1=0.248 X1=0.114 normamps=186.0 units=km 
New Linecode.2225097_M_3 R1=0.248 X1=0.114 normamps=186.0 units=km 
New Linecode.2225098_M_1 R1=0.054 X1=0.114 normamps=431.0 units=km 
New Linecode.2225098_M_2 R1=0.054 X1=0.114 normamps=431.0 units=km 
New Linecode.2225098_M_3 R1=0.054 X1=0.114 normamps=431.0 units=km 
New Linecode.2225100_M_1 R1=1.581 X1=0.0918 normamps=147.0 units=km 
New Linecode.2225100_M_2 R1=1.581 X1=0.0918 normamps=147.0 units=km 
New Linecode.2225100_M_3 R1=1.581 X1=0.0918 normamps=147.0 units=km 
New Linecode.2230054_M_1 R1=0.188 X1=0.1 normamps=300.0 units=km 
New Linecode.2230054_M_2 R1=0.188 X1=0.1 normamps=300.0 units=km 
New Linecode.2230054_M_3 R1=0.188 X1=0.1 normamps=300.0 units=km 
New Linecode.2232006_M_1 R1=0.15 X1=0.1 normamps=50.0 units=km 
New Linecode.2232006_M_2 R1=0.15 X1=0.1 normamps=50.0 units=km 
New Linecode.2232006_M_3 R1=0.15 X1=0.1 normamps=50.0 units=km 
