ARB_GBA01F3_2019/UConBTTD.dss
! UNIDADES CONSUMIDORAS DE BAIXA TENSAO NO TRANSFORMADOR DE DISTRIBUICAO
! Tranformador de Distribuicao: F33001
New Load.1075254 Bus1=90888BF33001.2.3.0 Phases=2 model=8 ZIPV=[0.5 0 0.5 0 0 1 0] Kv=0.220 kW=15.7 PF=0.92 conn=wye
! Tranformador de Distribuicao: F33001
New Load.1642617 Bus1=90888BF33001.1.2.0 Phases=2 model=8 ZIPV=[0.5 0 0.5 0 0 1 0] Kv=0.220 kW=2.07 PF=0.92 conn=wye
! Tranformador de Distribuicao: F33001
New Load.2968975 Bus1=90888BF33001.1.2.3.0 Phases=3 model=8 ZIPV=[0.5 0 0.5 0 0 1 0] Kv=0.220 kW=10.0 PF=0.92 conn=wye
! Tranformador de Distribuicao: F33001
New Load.3630614 Bus1=90888BF33001.1.2.3.0 Phases=3 model=8 ZIPV=[0.5 0 0.5 0 0 1 0] Kv=0.220 kW=16.91 PF=0.92 conn=wye
! Tranformador de Distribuicao: F33001
New Load.3823021 Bus1=90888BF33001.1.2.0 Phases=2 model=8 ZIPV=[0.5 0 0.5 0 0 1 0] Kv=0.220 kW=6.0 PF=0.92 conn=wye
! Tranformador de Distribuicao: F33308
New Load.434054 Bus1=104310440BF33308.1.2.3.0 Phases=3 model=8 ZIPV=[0.5 0 0.5 0 0 1 0] Kv=0.220 kW=2.93 PF=0.92 conn=wye
! Tranformador de Distribuicao: F33308
New Load.2894254 Bus1=104310440BF33308.1.2.3.0 Phases=3 model=8 ZIPV=[0.5 0 0.5 0 0 1 0] Kv=0.220 kW=12.5 PF=0.92 conn=wye
! Tranformador de Distribuicao: F33308
New Load.3494488 Bus1=104310440BF33308.1.2.3.0 Phases=3 model=8 ZIPV=[0.5 0 0.5 0 0 1 0] Kv=0.220 kW=1.0 PF=0.92 conn=wye
! Tranformador de Distribuicao: F33308
New Load.3819499 Bus1=104310440BF33308.1.2.3.0 Phases=3 model=8 ZIPV=[0.5 0 0.5 0 0 1 0] Kv=0.220 kW=12.05 PF=0.92 conn=wye
! Tranformador de Distribuicao: F33308
New Load.5320794 Bus1=104310440BF33308.1.2.3.0 Phases=3 model=8 ZIPV=[0.5 0 0.5 0 0 1 0] Kv=0.220 kW=20.78 PF=0.92 conn=wye
! Tranformador de Distribuicao: F33513
New Load.252 Bus1=104301339BF33513.1.2.3.0 Phases=3 model=8 ZIPV=[0.5 0 0.5 0 0 1 0] Kv=0.220 kW=8.03 PF=0.92 conn=wye
! Tranformador de Distribuicao: F33513
New Load.1236383 Bus1=104301339BF33513.1.0 Phases=1 model=8 ZIPV=[0.5 0 0.5 0 0 1 0] Kv=0.127 kW=8.315 PF=0.92 conn=wye
! Tranformador de Distribuicao: F33513
New Load.1475034 Bus1=104301339BF33513.1.2.3.0 Phases=3 model=8 ZIPV=[0.5 0 0.5 0 0 1 0] Kv=0.220 kW=1.72 PF=0.92 conn=wye
! Tranformador de Distribuicao: F33513
New Load.1643096 Bus1=104301339BF33513.1.2.3.0 Phases=3 model=8 ZIPV=[0.5 0 0.5 0 0 1 0] Kv=0.220 kW=13.0 PF=0.92 conn=wye
! Tranformador de Distribuicao: F33513
New Load.2233677 Bus1=104301339BF33513.3.1.0 Phases=2 model=8 ZIPV=[0.5 0 0.5 0 0 1 0] Kv=0.220 kW=8.28 PF=0.92 conn=wye
! Tranformador de Distribuicao: F33513
New Load.2261565 Bus1=104301339BF33513.1.2.3.0 Phases=3 model=8 ZIPV=[0.5 0 0.5 0 0 1 0] Kv=0.380 kW=1.13 PF=0.92 conn=wye
! Tranformador de Distribuicao: F33513
New Load.2312817 Bus1=104301339BF33513.3.1.0 Phases=2 model=8 ZIPV=[0.5 0 0.5 0 0 1 0] Kv=0.220 kW=10.5 PF=0.92 conn=wye
! Tranformador de Distribuicao: F33513
New Load.2417422 Bus1=104301339BF33513.1.2.3.0 Phases=3 model=8 ZIPV=[0.5 0 0.5 0 0 1 0] Kv=0.220 kW=9.39 PF=0.92 conn=wye
! Tranformador de Distribuicao: F33513
New Load.2638880 Bus1=104301339BF33513.1.2.0 Phases=2 model=8 ZIPV=[0.5 0 0.5 0 0 1 0] Kv=0.220 kW=7.99 PF=0.92 conn=wye
! Tranformador de Distribuicao: F33513
New Load.3595478 Bus1=104301339BF33513.1.2.3.0 Phases=3 model=8 ZIPV=[0.5 0 0.5 0 0 1 0] Kv=0.220 kW=13.0 PF=0.92 conn=wye
! Tranformador de Distribuicao: F33513
New Load.3867382 Bus1=104301339BF33513.1.2.0 Phases=2 model=8 ZIPV=[0.5 0 0.5 0 0 1 0] Kv=0.220 kW=15.0 PF=0.92 conn=wye
! Tranformador de Distribuicao: F33513
New Load.4062881 Bus1=104301339BF33513.1.2.3.0 Phases=3 model=8 ZIPV=[0.5 0 0.5 0 0 1 0] Kv=0.220 kW=9.55 PF=0.92 conn=wye
! Tranformador de Distribuicao: F33513
New Load.4375995 Bus1=104301339BF33513.1.2.3.0 Phases=3 model=8 ZIPV=[0.5 0 0.5 0 0 1 0] Kv=0.220 kW=8.38 PF=0.92 conn=wye
! Tranformador de Distribuicao: F33513
New Load.5137071 Bus1=104301339BF33513.2.3.0 Phases=2 model=8 ZIPV=[0.5 0 0.5 0 0 1 0] Kv=0.220 kW=13.57 PF=0.92 conn=wye
! Tranformador de Distribuicao: F33513
New Load.5564748 Bus1=104301339BF33513.1.2.3.0 Phases=3 model=8 ZIPV=[0.5 0 0.5 0 0 1 0] Kv=0.220 kW=11.04 PF=0.92 conn=wye
! Tranformador de Distribuicao: F33513
New Load.5577886 Bus1=104301339BF33513.1.2.0 Phases=2 model=8 ZIPV=[0.5 0 0.5 0 0 1 0] Kv=0.220 kW=4.74 PF=0.92 conn=wye
! Tranformador de Distribuicao: F33513
New Load.5707936 Bus1=104301339BF33513.2.3.0 Phases=2 model=8 ZIPV=[0.5 0 0.5 0 0 1 0] Kv=0.220 kW=12.67 PF=0.92 conn=wye
! Tranformador de Distribuicao: F33513
New Load.5925147 Bus1=104301339BF33513.2.3.0 Phases=2 model=8 ZIPV=[0.5 0 0.5 0 0 1 0] Kv=0.220 kW=13.57 PF=0.92 conn=wye
! Tranformador de Distribuicao: F33514
New Load.31217 Bus1=104301347BF33514.1.2.3.0 Phases=3 model=8 ZIPV=[0.5 0 0.5 0 0 1 0] Kv=0.220 kW=14.59 PF=0.92 conn=wye
! Tranformador de Distribuicao: F33514
New Load.199356 Bus1=104301347BF33514.1.2.3.0 Phases=3 model=8 ZIPV=[0.5 0 0.5 0 0 1 0] Kv=0.220 kW=9.71 PF=0.92 conn=wye
! Tranformador de Distribuicao: F33514
...